153
XYZ
C        0.001054843  -0.012105600   1.995494578
C        0.001059086   1.408080564   1.967464223
C        2.461730243  -0.011857650   1.975978365
C        2.461979060   1.407876024   1.935104251
C        1.231555998   2.118178122   1.933331340
C        1.231574201   3.537308819   1.883919375
C        0.000950775   4.247449957   1.872574961
C        0.001015364   5.667062562   1.846403582
C        4.921430372  -0.011900244   1.933893865
C        4.921453095   1.407300249   1.882872600
C        3.691495678   2.117790318   1.880425356
C        3.691454220   3.536696810   1.825777339
C        2.461498347   4.247327311   1.836602876
C        2.461580730   5.666794272   1.801928973
C        1.231478530   6.377153252   1.826562471
C        1.231471940   7.796900144   1.824544063
C        0.001107720   8.506965999   1.842715003
C        0.001178018   9.926726243   1.867063098
C        7.381097989  -0.012104490   1.910948237
C        7.381139638   1.407185424   1.861207635
C        6.151021201   2.117237970   1.834065155
C        6.151137024   3.535866647   1.769629914
C        4.920819899   4.246657408   1.767010001
C        4.920564762   5.666405365   1.722847064
C        3.690694715   6.377020289   1.751384613
C        3.690644014   7.797139805   1.748087868
C        2.461270826   8.507450527   1.796537050
C        2.461102998   9.927036798   1.829618465
C        1.231540041  10.636803367   1.878704285
C        1.231470610  12.055694576   1.931252340
C        0.001103411  12.765995000   1.963905459
C        0.001063220  14.185916055   1.994462698
C        9.840678473  -0.012187288   1.936386064
C        9.840719655   1.407292663   1.886231347
C        8.611159518   2.117334287   1.834979705
C        8.611244635   3.535698109   1.768210464
C        7.381277116   4.245970603   1.728576296
C        7.381165495   5.665752816   1.681742517
C        6.150606065   6.376762000   1.679706903
C        6.150494042   7.797360514   1.676824295
C        4.920459849   8.507860656   1.716804635
C        4.920600935   9.927733761   1.759750197
C        3.691163620  10.637434888   1.819667921
C        3.691262322  12.056232430   1.879764161
C        2.461828345  12.766133302   1.936398650
C        2.461706821  14.185699379   1.977904173
C        1.231437893  14.896797305   1.998218545
C        1.231524521  16.317267075   1.997782059
C       12.300415944  -0.011909123   1.979728237
C       12.300257591   1.407955196   1.941423048
C       11.070848100   2.117842151   1.884650103
C       11.070901261   3.536685188   1.826497107
C        9.841511201   4.246393847   1.764534228
C        9.841651876   5.666132558   1.720867908
C        8.611675438   6.376651018   1.678429352
C        8.611569490   7.797205971   1.679615142
C        7.381015225   8.508165640   1.680235228
C        7.380901929   9.928069696   1.726205789
C        6.150903332  10.638231430   1.765012500
C        6.151006980  12.056653935   1.832289340
C        4.921392292  12.766712224   1.883498527
C        4.921478241  14.185969810   1.935086180
C        3.691703324  14.896864316   1.970643653
C        3.691742004  16.317299118   1.969598477
C       13.530631534   2.118343614   1.936967254
C       13.530528387   3.537282386   1.885364235
C       12.300927526   4.247175710   1.837626612
C       12.300776471   5.666618612   1.802324982
C       11.071476991   6.376905006   1.751611215
C       11.071442829   7.797007467   1.751277801
C        9.841580006   8.507530201   1.721667428
C        9.841318400   9.927367625   1.764838911
C        8.611027018  10.638037526   1.767860980
C        8.611099373  12.056691121   1.832875949
C        7.381023101  12.766790079   1.860483225
C        7.381051614  14.185844952   1.910812843
C        6.151385667  14.896938882   1.934704238
C        6.151328145  16.317175581   1.934373193
C       13.530677480   6.377175516   1.827875918
C       13.530640400   7.796905389   1.825602421
C       12.300601498   8.507244912   1.799571472
C       12.300691912   9.926811504   1.832217298
C       11.070701263  10.637283099   1.822441578
C       11.070636960  12.056155383   1.878467457
C        9.840691775  12.766680347   1.882082041
C        9.840711036  14.185677953   1.933949627
C        8.610842378  14.896707135   1.934419931
C        8.610785528  16.316967388   1.935181334
C       13.530556547  10.636747589   1.879316982
C       13.530590110  12.055870789   1.929405894
C       12.300157154  12.766169825   1.932704002
C       12.300372701  14.185651704   1.975186198
C       11.070380694  14.896578011   1.969706533
C       11.070417049  16.317019613   1.971445386
C       13.530607791  14.896679901   1.997589889
C       13.530688830  16.317130369   1.998841849
Zn       7.342019206   7.099574918   5.582041648
N        5.740259843   8.313563200   5.621457731
N        6.823278460  10.451173529   5.650808681
N        4.066458816   6.600421784   5.655383093
N        8.519357013   8.743783211   5.630479851
N       10.679444258   7.685758736   5.653622503
N        6.220650102   5.526241127   5.631035904
N        7.930704983   3.829461842   5.652254520
N        9.005212084   5.969406666   5.621758422
C        5.759102661   9.674867453   5.647479092
C        4.457773619   7.859360060   5.649877176
C        4.375140360  10.162959876   5.693096196
C        3.551457958   9.015905949   5.693608156
C        3.828172394  11.447934611   5.725972470
C        2.158809952   9.126934626   5.728405285
C        8.072139901  10.033403397   5.651477978
C        4.853186322   5.543855354   5.655720744
C       10.372727961  10.117359319   5.693043727
C        9.228491336  10.940284864   5.692121401
C        9.883746534   8.734176595   5.653668220
C       11.660398801  10.658965102   5.725635834
C        9.338741122  12.333012783   5.726080861
C        5.520699024   3.336064352   5.693859957
C        4.372917402   4.159508791   5.695108324
C        6.677266325   4.237176569   5.653429780
C        5.412002930   1.942487073   5.727229440
C        3.086789752   3.613448332   5.729210166
C       10.284096390   6.430015974   5.648981787
C       10.387358953   4.131761416   5.693553059
C       11.198630868   5.287682127   5.693808613
C        8.995206298   4.607713055   5.647952342
C       10.960749979   2.857976133   5.726839049
C       12.592393041   5.208291489   5.727625793
C        1.611948969  10.414017661   5.764639519
C        2.434770622  11.557702669   5.761578257
C        4.124744726   1.397026927   5.762338519
C        2.978597222   2.220030605   5.764334819
C       13.163443015   3.932631252   5.764886308
C       12.357772382   2.775916006   5.763113751
C       10.628031437  12.875794285   5.762209698
C       11.772697734  12.052255683   5.762175332
H        2.201586871   4.263683280   5.723896843
H        6.312426264   1.313855978   5.721923918
H       10.329236887   1.960236701   5.713892012
H       13.203912496   6.120029432   5.713811217
H       12.542279093  10.005615945   5.716819323
H        8.440443588  12.964061479   5.720011939
H        4.477928845  12.332712415   5.713834959
H        1.525665445   8.231089822   5.717278220
H        1.985808586   1.749101182   5.790604621
H        3.999678131   0.305695207   5.785382223
H       12.842503675   1.790458366   5.784324169
H       14.257357678   3.826515178   5.788559522
H       12.766810155  12.520806461   5.788764029
H       10.756658026  13.965922292   5.786737359
H        1.968558993  12.551585308   5.781418031
H        0.520628244  10.539442985   5.787803083
