249
XYZ
C        0.112319909   1.472929492   1.531013008
C        0.112418599   2.891580871   1.482549664
C        2.572400147   1.472883970   1.520418154
C        2.572517274   2.891644874   1.474963340
C        1.342483560   3.602122027   1.460879030
C        1.342681805   5.021514960   1.430783659
C        0.112697858   5.732015918   1.425541761
C        0.112739589   7.151785234   1.419596794
C        5.032263455   1.472755475   1.490520524
C        5.032457971   2.891485145   1.447797907
C        3.802431167   3.602093579   1.441880830
C        3.802625701   5.021398818   1.409646109
C        2.572707889   5.732069963   1.412232896
C        2.572764516   7.151709595   1.407046737
C        1.342759697   7.862307809   1.419452147
C        1.342703221   9.282056477   1.440817922
C        0.112656046   9.992389044   1.458658799
C        0.112498263  11.411908735   1.497824476
C        7.492237986   1.472670544   1.475704410
C        7.492351464   2.891304751   1.431658577
C        6.262290194   3.601835572   1.412869621
C        6.262420319   5.021230745   1.379643352
C        5.032533574   5.731919961   1.384350592
C        5.032611694   7.151807435   1.378280209
C        3.802693463   7.862326095   1.399022719
C        3.802655458   9.282121677   1.421259214
C        2.572736636   9.992286357   1.450641270
C        2.572530566  11.411857815   1.488401336
C        1.342524384  12.122186571   1.518357030
C        1.342373661  13.541445996   1.561839186
C        0.112287104  14.252230441   1.581138517
C        0.112185929  15.672012424   1.590490502
C        9.952221286   1.472823874   1.494979643
C        9.952251095   2.891666667   1.455610856
C        8.722449429   3.601939185   1.419433233
C        8.722604303   5.021341597   1.388160063
C        7.492589025   5.731997236   1.365543213
C        7.492674631   7.151704303   1.357759551
C        6.262535849   7.862580234   1.366334536
C        6.262513320   9.282392908   1.390311772
C        5.032571419   9.992634434   1.421864168
C        5.032434990  11.412049981   1.461918203
C        3.802480736  12.122285378   1.497198740
C        3.802352845  13.541613560   1.536048677
C        2.572469878  14.252261796   1.565334812
C        2.572396145  15.671941299   1.574180700
C        1.342300033  16.382993272   1.580781340
C        1.342438555  17.802237876   1.551405049
C       12.412185924   1.472955814   1.524250029
C       12.412265622   2.891739641   1.479720101
C       11.182385099   3.602230095   1.451623406
C       11.182472621   5.021572966   1.423439014
C        9.952540469   5.732041137   1.398882928
C        9.952604727   7.151855804   1.391591950
C        8.722727819   7.862562737   1.374343293
C        8.722623048   9.282377720   1.396869241
C        7.492532060   9.992832180   1.405567343
C        7.492438495  11.412255420   1.446602633
C        6.262412318  12.122604061   1.471064418
C        6.262260151  13.541800179   1.508940729
C        5.032396084  14.252400319   1.534291658
C        5.032315385  15.671964423   1.543019924
C        3.802317820  16.382891986   1.553719089
C        3.802444865  17.802150496   1.526749296
C       13.642443116   3.602150763   1.463314977
C       13.642594389   5.021582057   1.434512564
C       12.412579203   5.732134540   1.421828890
C       12.412633035   7.151757012   1.415889223
C       11.182604065   7.862371569   1.410524930
C       11.182595294   9.282127085   1.429789264
C        9.952487433   9.992561303   1.429989535
C        9.952439163  11.412021061   1.467355067
C        8.722320660  12.122568239   1.473771368
C        8.722280913  13.541778564   1.511134560
C        7.492268487  14.252437454   1.521156200
C        7.492194851  15.671989383   1.530617784
C        6.262193321  16.382794473   1.526147931
C        6.262266492  17.801872700   1.497542736
C       13.642709989   7.862305063   1.423543527
C       13.642687431   9.282091099   1.443913754
C       12.412509731   9.992320631   1.455745567
C       12.412387780  11.411889558   1.492886216
C       11.182262579  12.122224268   1.502738341
C       11.182177551  13.541579576   1.541373572
C        9.952142012  14.252380899   1.537902269
C        9.952075609  15.671961258   1.545172023
C        8.722185250  16.382817886   1.527338883
C        8.722161416  17.801928657   1.499640069
C       13.642353507  12.122196982   1.521073805
C       13.642220697  13.541446584   1.564217097
C       12.412074887  14.252252511   1.569157146
C       12.411989604  15.671956593   1.576878405
C       11.182055213  16.382939867   1.556524236
C       11.182084588  17.802237733   1.530829580
C       13.642076847  16.383018084   1.582245994
C       13.642162850  17.802266421   1.553217719
C       -0.215374165  -0.016670439   5.761357006
C       -0.215557928   1.401901219   5.684072120
C        2.245695494  -0.016439802   5.738336324
C        2.245740322   1.402178005   5.663762354
C        1.015099867   2.112279263   5.637647383
C        1.015044070   3.530335460   5.552528823
C       -0.215350564   4.240424044   5.520172604
C       -0.214989789   5.660091303   5.466284329
C        4.705015049  -0.016897380   5.665311020
C        4.704849766   1.401842560   5.602743973
C        3.474908696   2.112137213   5.590451316
C        3.475015939   3.529595524   5.503060612
C        2.245211300   4.240406015   5.494119674
C        2.245164580   5.659802965   5.433987720
C        1.015352592   6.371028510   5.443904581
C        1.015731832   7.791729337   5.443042021
C       -0.214391318   8.502369246   5.467475476
C       -0.213942575   9.922323141   5.521827388
C        7.164701382  -0.016996264   5.635682638
C        7.164521672   1.402069763   5.579045281
C        5.934398288   2.111901382   5.543116799
C        5.934659930   3.529221475   5.453302600
C        4.704339337   4.239878494   5.431535663
C        4.704266905   5.659368359   5.370571026
C        3.474428640   6.370830770   5.384589548
C        3.474598437   7.791902006   5.384065174
C        2.245469577   8.503019788   5.430897717
C        2.245942009   9.922674801   5.489794344
C        1.016292289  10.632459170   5.547572269
C        1.016356524  12.050492190   5.637716545
C       -0.214207030  12.760587778   5.684820028
C       -0.214606970  14.179574656   5.761347560
C        9.624314131  -0.016857742   5.673164545
C        9.624211694   1.402448298   5.616582797
C        8.394595564   2.112382297   5.549258624
C        8.395020894   3.529201814   5.452738554
C        7.164959520   4.239376671   5.404686886
C        7.165135628   5.659174507   5.344458019
C        5.934586288   6.370727117   5.335655944
C        5.934859847   7.792006751   5.335749958
C        4.704641873   8.503304674   5.370547722
C        4.705171944   9.923120359   5.434057327
C        3.475895545  10.632587549   5.508392910
C        3.476125221  12.049980558   5.606884320
C        2.246761776  12.759940317   5.674499418
C        2.246360858  14.179212401   5.745872356
C        1.015949248  14.891074459   5.781517244
C        1.015578564  16.311734410   5.779300774
C       12.083687168  -0.016247500   5.744704540
C       12.083590951   1.402588460   5.671544420
C       10.854248492   2.112875495   5.602671460
C       10.854689039   3.529760662   5.502570285
C        9.625564020   4.239640011   5.428313674
C        9.626008514   5.659189718   5.363672222
C        8.395717626   6.370667791   5.331275583
C        8.396033244   7.791908982   5.334463887
C        7.165467468   8.503394223   5.348082808
C        7.165699801   9.923330142   5.410925247
C        5.935585166  10.633185771   5.458865016
C        5.935776455  12.050366738   5.554762089
C        4.706107502  12.760058681   5.619968679
C        4.705796464  14.179737777   5.674007282
C        3.476245184  14.891090050   5.729877290
C        3.475799252  16.311818067   5.724793872
C       13.314053884   2.112427604   5.635282880
C       13.314337194   3.529816817   5.543833644
C       12.084950261   4.240021743   5.483646327
C       12.085348272   5.659457185   5.424335625
C       10.856220917   6.370711803   5.376486263
C       10.856361285   7.791946243   5.379215414
C        9.626478848   8.503211720   5.369129483
C        9.626391027   9.922878497   5.434331727
C        8.395968753  10.632991220   5.459598769
C        8.395980856  12.050778486   5.550554727
C        7.165903228  12.760255759   5.585219382
C        7.165488728  14.179735413   5.638585346
C        5.935303675  14.891190538   5.657263074
C        5.934770104  16.311526740   5.654768081
C       13.315051289   6.370910742   5.438710132
C       13.315415486   7.791598945   5.440680343
C       12.085653594   8.502772114   5.429898670
C       12.085689969   9.922355897   5.493031174
C       10.855668587  10.632687933   5.505600960
C       10.855519701  12.050543914   5.594972725
C        9.625594364  12.760438497   5.609404286
C        9.625114270  14.179646040   5.669526827
C        8.395287982  14.891104922   5.657273405
C        8.394727832  16.311411742   5.656873708
C       13.315460861  10.632107393   5.552341512
C       13.315298336  12.050616500   5.637567849
C       12.084773460  12.760301988   5.664823038
C       12.084466027  14.179225219   5.738474409
C       10.854294808  14.890864732   5.726740351
C       10.853783727  16.311653419   5.729789432
C       13.314403574  14.890968093   5.778724806
C       13.314060415  16.311669923   5.780714504
Zn       7.330902695   7.080169494   9.215252096
N        5.783010781   8.164711595   9.247944827
N        6.769124351  10.444151429   9.230490832
N        3.984454126   6.453402873   9.230748404
N        8.514317146   8.781408889   9.314817941
N       10.678795385   7.713183597   9.277021896
N        6.146390098   5.381558322   9.160507082
N        7.897114904   3.723086161   9.203502423
N        8.884833544   5.999831450   9.247174466
C        5.756405760   9.565388110   9.230936853
C        4.457569989   7.706414693   9.238408966
C        4.372211558  10.008150896   9.222629562
C        3.563649629   8.854170650   9.236598809
C        3.808640770  11.289681250   9.229620032
C        2.165891333   8.950327359   9.228910848
C        8.057167373  10.073893799   9.275856964
C        4.776075896   5.371345946   9.215004123
C       10.358550907  10.178651908   9.280692004
C        9.199462279  10.990217305   9.271624167
C        9.885760944   8.792860131   9.294899839
C       11.633836213  10.750597656   9.263816136
C        9.302725162  12.383683144   9.269103974
C        5.465944409   3.172253147   9.258111118
C        4.307529379   3.984764050   9.263437561
C        6.607310813   4.090021061   9.204682237
C        5.358134083   1.777182738   9.277126460
C        3.032543583   3.414821151   9.273369005
C       10.207828125   6.458779204   9.254873141
C       10.299101869   4.156222320   9.224911599
C       11.104677762   5.312525105   9.236293866
C        8.911402917   4.599690118   9.220483935
C       10.870521086   2.877549046   9.229889993
C       12.502079406   5.223352559   9.234632906
C        1.604394821  10.228243612   9.210995290
C        2.416574076  11.386350677   9.223616946
C        4.079670289   1.207591541   9.269622937
C        2.928120098   2.019785399   9.257072996
C       13.073972928   3.948818850   9.213902017
C       12.265996593   2.788200394   9.223483981
C       10.579256522  12.955973814   9.256030499
C       11.733510868  12.147377518   9.240252219
H        2.149888409   4.066370121   9.271109517
H        6.259378225   1.151579854   9.273875535
H       10.231537946   1.984077552   9.241395106
H       13.120666260   6.131023401   9.247884884
H       12.523160923  10.109044580   9.260989064
H        8.396992981  13.003975483   9.269677222
H        4.451988038  12.179347837   9.238242846
H        1.544045308   8.043745142   9.236842001
H        1.933598335   1.551547172   9.204734018
H        3.971246774   0.112721087   9.254159005
H       12.740789407   1.798117681   9.226426702
H       14.168839555   3.847979880   9.185466361
H       12.725681635  12.619825889   9.192867293
H       10.684998129  14.050549774   9.241174997
H        1.946164818  12.378901791   9.227378296
H        0.511453272  10.337829134   9.184566517
